ca_results/winter/rts_gmlc_export_10_43_winter_v35_base_acpf_buses.csv
Bus#,Name,Type,Area,Zone,Volt(kV),Volt(pu),Angle(deg),Angle(rad),VoltMin,VoltMax
101,ABEL        ,2,1,11,132.63851928710938,0.9611486792564392,-12.698970794677734,-0.2216387838125229,0.949999988079071,1.0499999523162842
102,ADAMS       ,2,1,12,132.84889221191406,0.9626731276512146,-12.667411804199219,-0.2210879623889923,0.949999988079071,1.0499999523162842
103,ADLER       ,1,1,11,129.72706604003906,0.9400511980056763,-14.502279281616211,-0.25311243534088135,0.949999988079071,1.0499999523162842
104,AGRICOLA    ,1,1,11,130.54660034179688,0.9459899067878723,-12.891264915466309,-0.2249949425458908,0.949999988079071,1.0499999523162842
105,AIKEN       ,1,1,11,133.0792694091797,0.9643425345420837,-12.88074016571045,-0.22481124103069305,0.949999988079071,1.0499999523162842
106,ALBER       ,1,1,12,134.3561553955078,0.9735953211784363,-13.502416610717773,-0.2356615513563156,0.949999988079071,1.0499999523162842
107,ALDER       ,2,1,12,132.96527099609375,0.9635164141654968,-8.036273956298828,-0.14025940001010895,0.949999988079071,1.0499999523162842
108,ALGER       ,1,1,12,131.2600555419922,0.9511598348617554,-10.991423606872559,-0.19183646142482758,0.949999988079071,1.0499999523162842
109,ALI         ,1,1,13,130.6351776123047,0.946631669998169,-10.945813179016113,-0.19104041159152985,0.949999988079071,1.0499999523162842
110,ALLEN       ,1,1,13,135.13502502441406,0.979239284992218,-11.429296493530273,-0.19947879016399384,0.949999988079071,1.0499999523162842
111,ANNA        ,1,1,13,218.11863708496094,0.9483419060707092,-7.6618475914001465,-0.1337244212627411,0.949999988079071,1.0499999523162842
112,ARCHER      ,1,1,13,218.71153259277344,0.9509196877479553,-6.15541934967041,-0.1074322983622551,0.949999988079071,1.0499999523162842
113,ARNE        ,3,1,14,218.5,0.949999988079071,1.4672310995357354e-21,2.5608004283006296e-23,0.949999988079071,1.0499999523162842
114,ARNOLD      ,2,1,16,217.43580627441406,0.9453730583190918,-10.671228408813477,-0.18624800443649292,0.949999988079071,1.0499999523162842
115,ARTHUR      ,2,1,16,221.17630004882812,0.9616360664367676,-12.74323558807373,-0.22241133451461792,0.949999988079071,1.0499999523162842
116,ASSER       ,2,1,16,219.94105529785156,0.9562654495239258,-11.640396118164062,-0.20316316187381744,0.949999988079071,1.0499999523162842
117,ASTON       ,1,1,17,220.69366455078125,0.95953768491745,-12.132880210876465,-0.21175862848758698,0.949999988079071,1.0499999523162842
118,ASTOR       ,2,1,17,220.31346130371094,0.9578846096992493,-12.326371192932129,-0.21513569355010986,0.949999988079071,1.0499999523162842
119,ATTAR       ,1,1,15,218.52511596679688,0.9501091837882996,-10.316510200500488,-0.18005700409412384,0.949999988079071,1.0499999523162842
120,ATTILA      ,1,1,15,218.29896545410156,0.9491259455680847,-8.14214038848877,-0.14210711419582367,0.949999988079071,1.0499999523162842
121,ATTLEE      ,2,1,17,221.58763122558594,0.9634245038032532,-12.72866153717041,-0.22215697169303894,0.949999988079071,1.0499999523162842
122,AUBREY      ,2,1,17,222.9025115966797,0.9691413640975952,-12.552526473999023,-0.21908284723758698,0.949999988079071,1.0499999523162842
123,AUSTEN      ,2,1,15,218.60459899902344,0.9504547715187073,-6.545505523681641,-0.11424058675765991,0.949999988079071,1.0499999523162842
124,AVERY       ,1,1,16,219.45606994628906,0.9541568160057068,-13.384660720825195,-0.23360632359981537,0.949999988079071,1.0499999523162842
201,BACH        ,2,2,21,131.96511840820312,0.9562689661979675,-32.305545806884766,-0.5638379454612732,0.949999988079071,1.0499999523162842
202,BACON       ,2,2,22,132.103759765625,0.9572736024856567,-32.44755935668945,-0.566316545009613,0.949999988079071,1.0499999523162842
203,BAFFIN      ,1,2,21,128.55226135253906,0.9315381646156311,-23.487422943115234,-0.4099327325820923,0.949999988079071,1.0499999523162842
204,BAILEY      ,1,2,21,129.2880096435547,0.9368696212768555,-32.72832107543945,-0.5712167620658875,0.949999988079071,1.0499999523162842
205,BAIN        ,1,2,21,132.31658935546875,0.9588158130645752,-33.68585205078125,-0.587928831577301,0.949999988079071,1.0499999523162842
206,BAJER       ,1,2,22,133.43344116210938,0.9669089913368225,-35.041709899902344,-0.6115930080413818,0.949999988079071,1.0499999523162842
207,BAKER       ,2,2,22,131.09999084472656,0.949999988079071,-38.42373275756836,-0.6706204414367676,0.949999988079071,1.0499999523162842
208,BALCH       ,1,2,22,129.35687255859375,0.937368631362915,-37.485626220703125,-0.6542474031448364,0.949999988079071,1.0499999523162842
209,BALZAC      ,1,2,23,129.23629760742188,0.9364948868751526,-30.57300567626953,-0.5335994362831116,0.949999988079071,1.0499999523162842
210,BANKS       ,1,2,23,134.47073364257812,0.9744256138801575,-33.27130126953125,-0.5806935429573059,0.949999988079071,1.0499999523162842
211,BARDEEN     ,1,2,23,217.97605895996094,0.9477220177650452,-27.804506301879883,-0.48528000712394714,0.949999988079071,1.0499999523162842
212,BARKLA      ,1,2,23,218.6818084716797,0.9507904648780823,-28.2655086517334,-0.49332600831985474,0.949999988079071,1.0499999523162842
213,BARLOW      ,2,2,24,218.5,0.949999988079071,-26.127365112304688,-0.4560084044933319,0.949999988079071,1.0499999523162842
214,BARRY       ,2,2,26,217.39157104492188,0.9451807141304016,-25.027803421020508,-0.4368174076080322,0.949999988079071,1.0499999523162842
215,BARTON      ,2,2,26,220.81295776367188,0.9600563645362854,-15.298955917358398,-0.26701706647872925,0.949999988079071,1.0499999523162842
216,BASOV       ,2,2,26,221.0763397216797,0.9612014889717102,-17.668516159057617,-0.30837365984916687,0.949999988079071,1.0499999523162842
217,BATES       ,1,2,27,224.4871368408203,0.9760310053825378,-14.312579154968262,-0.24980154633522034,0.949999988079071,1.0499999523162842
218,BAYLE       ,2,2,27,227.14389038085938,0.9875821471214294,-13.99892520904541,-0.24432724714279175,0.949999988079071,1.0499999523162842
219,BEDE        ,1,2,25,218.96571350097656,0.9520248174667358,-21.213388442993164,-0.3702433407306671,0.949999988079071,1.0499999523162842
220,BEETHOVEN   ,1,2,25,218.64242553710938,0.9506192207336426,-23.21456527709961,-0.4051704704761505,0.949999988079071,1.0499999523162842
221,BEHRING     ,2,2,27,225.50140380859375,0.9804409146308899,-13.621992111206055,-0.23774853348731995,0.949999988079071,1.0499999523162842
222,BELL        ,1,2,27,226.7982940673828,0.9860795140266418,-13.9501314163208,-0.24347564578056335,0.949999988079071,1.0499999523162842
223,BLOCH       ,2,2,25,218.7642059326172,0.9511487483978271,-23.879451751708984,-0.4167749285697937,0.949999988079071,1.0499999523162842
224,BORDET      ,1,2,26,217.34585571289062,0.9449819922447205,-18.344619750976562,-0.32017388939857483,0.949999988079071,1.0499999523162842
301,CABELL      ,2,3,31,133.38796997070312,0.9665794968605042,-68.95308685302734,-1.2034579515457153,0.949999988079071,1.0499999523162842
302,CABOT       ,2,3,32,133.63504028320312,0.9683698415756226,-69.1056900024414,-1.2061214447021484,0.949999988079071,1.0499999523162842
303,CAESAR      ,1,3,31,129.80589294433594,0.9406224489212036,-62.96263122558594,-1.0989048480987549,0.949999988079071,1.0499999523162842
304,CAINE       ,1,3,31,130.37167358398438,0.9447222948074341,-68.12722778320312,-1.1890439987182617,0.949999988079071,1.0499999523162842
305,CALVIN      ,1,3,31,133.1712188720703,0.9650087952613831,-68.86740112304688,-1.2019624710083008,0.949999988079071,1.0499999523162842
306,CAMUS       ,1,3,32,133.9142303466797,0.9703929424285889,-69.56209564208984,-1.2140872478485107,0.949999988079071,1.0499999523162842
307,CAREW       ,2,3,32,131.3829345703125,0.9520502686500549,-75.05189514160156,-1.3099021911621094,0.949999988079071,1.0499999523162842
308,CARREL      ,1,3,32,129.16835021972656,0.9360024929046631,-73.2718734741211,-1.2788349390029907,0.949999988079071,1.0499999523162842
309,CARTER      ,1,3,33,130.92311096191406,0.9487181901931763,-64.27096557617188,-1.1217396259307861,0.949999988079071,1.0499999523162842
310,CARUSO      ,1,3,33,135.41905212402344,0.981297492980957,-66.44990539550781,-1.1597692966461182,0.949999988079071,1.0499999523162842
311,CARY        ,1,3,33,221.4332275390625,0.962753176689148,-59.00431823730469,-1.0298192501068115,0.949999988079071,1.0499999523162842
312,CAXTON      ,1,3,33,221.31077575683594,0.9622207880020142,-57.1042366027832,-0.996656596660614,0.949999988079071,1.0499999523162842
313,CECIL       ,2,3,34,228.2191925048828,0.9922573566436768,-54.934322357177734,-0.9587844610214233,0.949999988079071,1.0499999523162842
314,CHAIN       ,2,3,36,218.7057647705078,0.9508946537971497,-56.247684478759766,-0.981706976890564,0.949999988079071,1.0499999523162842
315,CHASE       ,2,3,36,223.49435424804688,0.9717146158218384,-48.27750015258789,-0.8426010608673096,0.949999988079071,1.0499999523162842
316,CHIFA       ,2,3,36,221.09303283691406,0.9612740874290466,-47.84140396118164,-0.8349897265434265,0.949999988079071,1.0499999523162842
317,CHUHSI      ,1,3,37,229.46041870117188,0.9976539611816406,-45.12950134277344,-0.7876580953598022,0.949999988079071,1.0499999523162842
318,CLARK       ,2,3,37,232.6536865234375,1.011537790298462,-43.904598236083984,-0.7662795186042786,0.949999988079071,1.0499999523162842
319,CLAY        ,1,3,35,220.58685302734375,0.9590732455253601,-46.701107025146484,-0.8150877952575684,0.949999988079071,1.0499999523162842
320,CLIVE       ,1,3,35,221.718994140625,0.963995635509491,-44.29615020751953,-0.7731133699417114,0.949999988079071,1.0499999523162842
321,COBB        ,2,3,37,233.61412048339844,1.0157135725021362,-44.58538818359375,-0.7781615853309631,0.949999988079071,1.0499999523162842
322,COLE        ,2,3,37,238.2606658935547,1.0359159708023071,-43.99043655395508,-0.767777681350708,0.949999988079071,1.0499999523162842
323,COMTE       ,2,3,35,223.0401611328125,0.9697398543357849,-42.43935775756836,-0.7407062649726868,0.949999988079071,1.0499999523162842
324,CURIE       ,1,3,36,217.9734649658203,0.9477106928825378,-53.744136810302734,-0.9380118250846863,0.949999988079071,1.0499999523162842
325,CURTISS     ,1,3,35,219.79917907714844,0.9556486010551453,-40.112998962402344,-0.7001036405563354,0.949999988079071,1.0499999523162842
